Stray ".ends" card: .ends bfp640
LTspice 24.0.12 for Windows
Circuit: * C:\users\iwolfs\Favorites\simulations\ltspice\version_2\CASCODE_V2.asc
Start Time: Sun Jan 12 01:57:35 2025
Number of points per octave reduced from 2147483648 to 19362.
solver = Normal
Maximum thread count: 12
tnom = 25
temp = 27
method = modified trap
gmin = 1e-12
WARNING: Node N011 is floating.

Direct Newton iteration for .op point succeeded.

s11_12e9: s11(v1)=(-1.47938dB,0.59063°) at 1.22e+09
s12_12e9: s12(v1)=(-107.654dB,74.8615°) at 1.22e+09
s21_12e9: s21(v1)=(47.1825dB,113.25°) at 1.22e+09
s22_12e9: s22(v1)=(-4.09813dB,-55.3317°) at 1.22e+09
s11_15e9: s11(v1)=(-0.87794dB,-11.0559°) at 1.5e+09
s12_15e9: s12(v1)=(-108.605dB,90.9627°) at 1.5e+09
s21_15e9: s21(v1)=(43.388dB,87.0082°) at 1.5e+09
s22_15e9: s22(v1)=(-6.25375dB,-68.8719°) at 1.5e+09

Total elapsed time: 2.035 seconds.

