Circuit: * C:\users\igorwolfs\My Documents\Personal\Projects\RF_LNA\simulations\LNA_BASICS.asc

Direct Newton iteration for .op point succeeded.

Date: Mon Sep 23 13:12:36 2024
Total elapsed time: 0.132 seconds.

tnom = 27
temp = 27
method = modified trap
totiter = 80034
traniter = 80030
tranpoints = 40016
accept = 24018
rejected = 15998
matrix size = 9
fillins = 0
solver = Normal
Matrix Compiler1: 448 bytes object code size  0.1/0.1/[0.1]
Matrix Compiler2: 637 bytes object code size  0.1/0.2/[0.1]

