Stray ".ends" card: .ends bfp640
Circuit: * C:\users\igorwolfs\My Documents\Personal\Projects\RF_LNA\simulations\LNA_BASICS.asc

Direct Newton iteration for .op point succeeded.

Date: Sun Sep 29 01:02:27 2024
Total elapsed time: 0.038 seconds.

tnom = 27
temp = 27
method = modified trap
totiter = 2052
traniter = 2040
tranpoints = 1021
accept = 1021
rejected = 0
matrix size = 21
fillins = 0
solver = Normal
Matrix Compiler1: 1.10 KB object code size  0.3/0.2/[0.1]
Matrix Compiler2: off  [0.2]/0.2/0.2

